/*--------------------------------*- C++ -*----------------------------------*\
  =========                 |
  \\      /  F ield         | OpenFOAM: The Open Source CFD Toolbox
   \\    /   O peration     | Website:  https://openfoam.org
    \\  /    A nd           | Version:  11
     \\/     M anipulation  |
\*---------------------------------------------------------------------------*/
FoamFile
{
    format      ascii;
    class       dictionary;
    object      blockMeshDict;
}
// * * * * * * * * * * * * * * * * * * * * * * * * * * * * * * * * * * * * * //

convertToMeters 1;//0.1;

vertices
(
    (0 0 0)
    (10 0 0)
    (10 1 0)
    (0 1 0)
    (0 0 1)
    (10 0 1)
    (10 1 1)
    (0 1 1)
);

blocks
(
    hex (0 1 2 3 4 5 6 7) (2000 75 75) simpleGrading (1 1 1)
);

boundary
(
    top
    {
        type patch;
        faces
        (
            (3 7 6 2)
        );
    }

    left
    {
        type patch;
        faces
        (
            (0 4 7 3)
        );
    }

    right
    {
        type patch;
        faces
        (
            (2 6 5 1)
        );
    }

    bottom
    {
        type patch;
        faces
        (
            (1 5 4 0)
        );
    }

    front
    {
        type patch;
        faces
        (
            (0 3 2 1)
        );
    }

    back
    {
        type patch;
        faces
        (
            (4 5 6 7)
        );
    }


);


// ************************************************************************* //
