/*--------------------------------*- C++ -*----------------------------------*\
  =========                 |
  \\      /  F ield         | OpenFOAM: The Open Source CFD Toolbox
   \\    /   O peration     | Website:  https://openfoam.org
    \\  /    A nd           | Version:  11
     \\/     M anipulation  |
\*---------------------------------------------------------------------------*/
FoamFile
{
    format      ascii;
    class       volScalarField;
    object      T;
}
// * * * * * * * * * * * * * * * * * * * * * * * * * * * * * * * * * * * * * //

dimensions      [0 0 0 1 0 0 0];

internalField   uniform 300; // Anfangswert für die Temperatur


boundaryField
{
    left
    {
        type            fixedValue;
        value           uniform 550;
    }

    right
    {
        type            fixedValue;
        value           uniform 50;
    }


    "(top|bottom|front|back)"
    {
        type            zeroGradient;
    }





}
// ************************************************************************* //

